324    
 generated by VMD 
 F 14.240202 18.380251 45.525894
 F 19.88879 16.357456 45.429028
 F 16.243214 15.525397 45.15237
 F 13.65802 13.987168 45.121651
 F 11.938789 17.2036 44.829594
 F 17.726179 19.237333 44.690495
 Ca 17.953503 16.973749 44.677799
 Ca 13.976904 16.353136 44.5672
 F 13.82077 21.044231 44.547272
 F 8.923378 14.992152 44.504765
 Ca 12.219204 19.414181 44.475296
 F 16.468439 21.681526 44.309906
 Ca 15.773405 13.50096 44.261562
 Ca 15.519703 19.600933 44.255493
 F 10.085737 18.938469 44.033199
 Ca 14.788036 23.098219 43.845356
 Ca 21.346664 16.184258 43.839741
 F 17.046848 11.823979 43.83181
 Ca 10.026417 16.660397 43.784256
 Ca 12.227018 12.966152 43.643013
 F 10.076656 12.303106 43.431599
 F 16.223858 17.567165 43.373104
 F 16.132509 24.736586 43.372559
 F 23.268551 15.441139 43.259491
 F 12.731472 23.373508 43.228752
 F 21.389919 18.163239 43.134106
 Ca 18.292656 20.864323 43.132729
 Ca 8.313044 13.54643 43.060917
 F 11.643482 15.032462 43.059193
 F 12.157938 10.67263 43.040039
 F 14.31035 12.318949 43.019447
 F 13.756599 18.634357 43.012753
 F 14.548964 15.03607 42.973763
 F 19.064068 16.202909 42.972504
 F 11.720278 20.346386 42.520916
 F 17.036062 13.988021 42.358845
 F 8.467094 17.597523 42.256794
 F 16.288902 20.121365 42.215134
 F 6.692159 14.592975 42.172283
 F 21.050201 14.706477 42.065449
 F 20.127525 21.150801 41.946457
 F 18.638405 18.929075 41.924404
 F 11.177111 17.553856 41.88409
 F 9.310186 15.146695 41.754967
 Ca 9.666153 19.388382 41.75021
 Ca 10.320621 10.683013 41.697548
 Ca 17.196884 11.554832 41.687801
 F 17.725826 22.45553 41.653049
 F 15.069618 23.074991 41.645481
 Ca 11.865902 22.329037 41.612873
 Ca 13.78731 10.761477 41.511333
 Ca 18.963192 14.731404 41.416401
 F 15.772261 10.00015 41.398319
 F 8.370989 12.083341 41.387779
 Ca 16.875221 24.61874 41.335514
 F 9.649586 21.665617 41.329994
 Ca 20.828545 19.016964 41.278828
 F 11.891153 12.495374 41.251671
 Ca 23.185066 14.629677 41.24131
 Ca 16.745941 18.042479 41.132698
 Ca 15.178091 14.805349 40.984142
 Ca 7.388246 16.180878 40.888161
 Ca 13.174414 18.766676 40.860241
 Ca 11.285582 15.477104 40.854923
 F 18.89381 12.635026 40.81654
 F 14.713791 16.953651 40.695339
 F 23.861767 12.704025 40.58086
 F 9.225767 9.20715 40.558304
 F 15.590876 12.696542 40.556129
 F 22.374374 16.675423 40.483181
 F 17.237368 15.887472 40.46954
 F 19.006077 24.433121 40.439426
 F 13.414141 21.232044 40.416187
 F 12.100658 9.748652 40.376942
 Ca 15.919851 21.507364 40.352943
 F 22.825539 19.42461 40.30048
 Ca 19.66153 22.344574 40.043903
 F 24.866348 15.710536 40.016109
 F 11.15711 19.684284 39.969776
 F 15.2726 19.389891 39.953747
 F 13.093012 14.523168 39.923992
 F 17.140617 26.195673 39.827038
 F 8.484407 19.726887 39.750465
 Ca 24.152302 17.838018 39.703175
 F 6.379932 17.604538 39.69482
 F 20.069908 17.797325 39.554035
 F 12.273506 17.040821 39.496105
 F 11.219433 22.664671 39.481297
 F 17.927729 20.834187 39.478886
 F 10.078184 11.421878 39.395058
 F 20.561565 20.362307 39.337646
 F 7.759649 14.596469 39.308182
 F 17.389835 11.120487 39.303257
 F 16.445986 23.517847 39.294353
 F 13.790096 11.304184 39.268425
 Ca 8.137947 12.458545 39.224953
 Ca 9.279099 21.651653 39.116962
 F 19.313168 14.733837 39.111763
 F 21.872269 22.73959 39.104874
 F 22.15118 14.180635 39.086372
 F 19.201385 8.306492 39.077789
 F 10.556349 14.291114 39.051022
 F 9.25333 17.11528 39.018707
 F 21.12809 11.370206 38.965065
 Ca 11.937817 12.513532 38.913502
 F 15.260059 8.066588 38.836189
 F 17.192966 18.020191 38.77755
 F 15.399509 14.774369 38.710274
 Ca 23.192783 12.200067 38.624485
 Ca 19.181911 12.421245 38.560963
 Ca 21.105743 16.079676 38.55579
 Ca 18.687248 25.509661 38.514355
 Ca 9.77446 9.309233 38.484509
 Ca 17.177893 8.989982 38.475067
 Ca 22.562084 20.704868 38.404804
 F 25.977188 17.511526 38.347637
 Ca 20.950832 9.259721 38.344845
 F 24.548698 19.695133 38.321232
 Ca 15.487625 12.395158 38.312843
 Ca 13.425442 9.081526 38.312832
 F 13.19445 19.235788 38.280563
 Ca 12.735279 21.481825 38.259163
 Ca 7.392732 18.611166 38.141232
 Ca 17.351843 15.838641 38.137566
 F 15.016735 21.449369 38.127731
 Ca 11.02759 18.384907 38.114502
 Ca 18.987766 19.293226 38.056393
 Ca 13.466444 15.751263 37.995304
 Ca 25.714134 15.377586 37.992271
 F 19.570244 23.446726 37.977291
 F 23.223698 16.828753 37.916134
 F 11.499617 8.22548 37.91177
 F 20.726688 25.837154 37.881702
 F 7.88968 10.703485 37.879025
 F 23.010334 9.959842 37.764698
 Ca 15.385214 19.17156 37.727829
 F 7.631357 21.381145 37.687721
 F 24.873562 13.403894 37.670143
 F 17.358313 13.492351 37.638672
 Ca 9.118479 15.333585 37.61834
 F 10.667841 20.765209 37.590511
 F 15.508596 10.294038 37.52623
 F 19.184155 10.376626 37.468773
 F 13.359123 23.498362 37.413662
 F 11.927916 10.848811 37.376823
 F 13.284061 13.514233 37.356457
 Ca 21.812366 24.051462 37.295372
 F 19.21172 16.861616 37.285706
 Ca 15.607229 23.469259 37.241066
 F 15.246395 16.973236 37.168461
 F 11.366934 16.337345 37.159092
 F 8.802065 13.142422 37.142033
 F 7.471666 16.734848 36.859692
 F 17.489004 24.545767 36.847443
 F 17.224995 19.969742 36.844166
 F 20.084496 21.119699 36.789146
 Ca 26.038109 19.192652 36.773155
 F 23.04092 22.118513 36.767994
 F 22.086563 19.085567 36.738129
 F 9.2628 18.722002 36.699883
 F 22.727188 12.305316 36.403294
 F 21.289505 15.545318 36.266792
 F 9.700905 9.617246 36.259346
 F 19.406879 12.807986 36.251778
 F 21.111374 9.053577 36.129562
 F 17.364847 8.965367 36.090767
 F 26.885742 14.492316 36.069221
 F 6.771722 19.309778 36.057655
 F 13.597689 9.065845 36.004822
 F 15.446669 12.436213 35.976563
 F 12.920671 21.322744 35.958141
 F 24.79805 15.825161 35.93362
 Ca 18.792049 22.850006 35.910297
 F 11.910641 18.725716 35.858269
 F 27.303814 17.699923 35.85527
 F 25.757931 21.114893 35.812771
 F 17.355341 15.633966 35.809418
 Ca 22.969093 17.084766 35.686241
 F 13.47467 15.66259 35.649223
 Ca 8.263222 11.173396 35.645763
 Ca 6.806879 21.535479 35.639668
 F 19.196411 18.873295 35.538673
 Ca 24.991119 13.30794 35.449242
 F 16.711271 22.272827 35.443592
 F 9.474501 15.755265 35.442535
 F 20.486198 24.116005 35.431728
 Ca 22.986546 10.144835 35.421635
 Ca 10.373434 20.295137 35.372845
 F 15.220055 19.005632 35.361019
 Ca 15.481728 10.061369 35.338696
 Ca 12.596655 23.508856 35.334297
 Ca 11.660391 9.996097 35.321568
 F 23.127247 24.303366 35.303612
 Ca 19.229794 9.986465 35.285618
 F 10.597706 22.589815 35.261459
 Ca 21.204708 13.485608 35.260826
 F 14.758987 24.127331 35.250961
 Ca 17.391239 13.430073 35.23613
 F 24.74456 18.392323 35.131989
 F 24.801239 11.246043 35.111423
 Ca 21.014633 20.092037 35.086689
 Ca 13.500435 13.41538 35.080997
 F 7.761095 23.386148 35.057091
 Ca 19.21603 16.716854 35.019951
 Ca 7.874326 17.585835 34.879017
 Ca 24.257595 22.347155 34.867008
 Ca 11.573299 16.704842 34.830105
 Ca 15.337898 16.725229 34.823185
 F 7.54634 12.936631 34.694004
 Ca 17.234823 19.929462 34.63224
 F 10.310926 11.881377 34.617138
 F 17.466343 11.219494 34.60413
 F 23.104347 14.268204 34.56596
 F 20.970837 11.352078 34.554134
 Ca 26.652157 16.16386 34.534492
 F 13.511599 11.231166 34.516426
 F 21.172123 17.513815 34.38372
 F 15.473228 14.510261 34.302788
 F 8.566395 20.936472 34.272182
 F 19.14085 21.153475 34.254333
 F 21.958908 21.949041 34.220013
 Ca 13.561716 20.078213 34.217216
 F 19.580196 14.645441 34.149605
 F 11.550499 14.428468 34.140453
 F 9.947773 18.180273 34.093555
 Ca 9.192198 14.056439 34.057621
 F 17.278807 17.703606 34.036316
 F 5.864149 21.092703 33.77319
 F 13.396942 17.710865 33.752956
 F 11.499105 24.532478 33.636208
 F 22.565796 19.501957 33.623806
 Ca 21.599827 24.132828 33.623535
 F 8.456778 10.333184 33.587681
 Ca 9.360924 23.342424 33.568806
 F 18.237209 23.460281 33.562115
 F 13.50144 22.531584 33.501858
 Ca 15.95978 23.355665 33.48904
 F 11.465948 20.494699 33.485985
 F 25.454185 14.507233 33.475597
 F 15.572523 20.881157 33.362831
 F 22.692471 9.820679 33.316914
 F 15.567106 9.985266 33.10265
 F 11.723486 9.897328 33.052563
 F 24.611515 21.034386 33.044056
 F 23.494339 16.943565 33.03883
 F 8.611816 16.025162 33.033264
 F 19.268761 9.942719 33.030155
 Ca 24.743443 18.856981 32.948112
 F 17.468412 13.323449 32.942577
 F 26.339176 17.457762 32.878853
 F 7.557653 18.50108 32.831318
 F 13.66407 13.274256 32.796429
 F 23.388535 23.374777 32.659863
 F 21.736553 13.231498 32.532383
 Ca 23.407528 14.804476 32.500126
 F 15.46397 16.528025 32.479694
 F 19.419872 16.974415 32.363598
 Ca 7.361539 20.633532 32.331333
 F 11.350182 16.316261 32.313366
 Ca 17.493357 11.067159 32.269535
 Ca 21.219315 10.923385 32.236206
 F 17.779531 19.766771 32.228783
 Ca 13.673851 10.879813 32.22208
 F 9.815279 13.206916 32.169209
 Ca 21.47308 17.95192 32.143429
 Ca 9.903372 10.926211 32.134109
 F 14.701305 24.485706 32.11684
 Ca 18.917095 21.715736 32.092323
 F 8.005205 22.62475 32.081573
 Ca 15.595207 14.292729 32.015942
 Ca 22.619652 21.338461 31.971773
 Ca 9.572138 17.706686 31.93327
 F 20.819458 22.868973 31.927864
 F 13.488707 19.772039 31.914509
 Ca 12.723164 23.853779 31.866613
 Ca 19.634605 14.4629 31.862768
 F 20.672237 20.14749 31.820242
 F 10.815504 22.79299 31.79109
 Ca 11.795479 14.141932 31.774721
 Ca 17.357553 17.62682 31.66717
 F 21.654106 15.748351 31.540739
 F 16.84277 22.288769 31.533287
 F 19.387199 12.193642 31.499496
 Ca 13.45167 17.541193 31.434471
 F 15.5973 11.998378 31.421764
 F 11.958225 11.941501 31.301615
 Ca 11.368843 20.695478 31.296106
 F 9.207859 19.892002 31.279699
 F 23.257912 19.267956 31.208694
 F 17.602732 15.369849 31.157825
 F 13.570175 15.308442 31.015299
 Ca 15.218052 20.895302 30.942987
 F 11.400158 18.508446 30.875574
 F 15.523018 18.563219 30.739103
 F 13.174772 22.056627 30.66445
 F 21.157494 10.918146 30.074842
 F 17.576113 10.841386 29.984272
 F 10.137495 10.679672 29.972708
 F 13.79952 10.675821 29.881784
 F 15.637197 14.087139 29.778803
 F 19.439262 14.096181 29.584389
 F 11.851925 13.931663 29.464823
 F 17.470451 17.330965 29.312386
 Ca 15.66131 11.728774 29.171848
 F 13.762434 17.237709 29.134079
 Ca 19.480145 11.834814 29.118824
 Ca 11.828094 11.62652 29.005768
 Ca 17.566811 15.104213 28.873922
 F 15.556122 20.36216 28.867487
 Ca 13.71073 15.019814 28.757483
 Ca 15.618917 18.297588 28.333073
 F 17.43383 12.889217 28.288168
 F 13.921379 12.808774 28.229481
 F 15.676859 15.896298 27.902685
 F 19.296478 11.716262 26.911398
 F 12.139339 11.569386 26.803823
 F 15.727728 11.511222 26.734228
 F 17.589632 14.799123 26.391035
 F 13.803589 14.734015 26.351286
 F 15.680342 17.800108 26.15521
 Ca 17.566078 12.596715 26.094362
 Ca 13.863482 12.519835 26.03937
 Ca 15.69265 15.738599 25.70093
 F 15.723179 13.515721 25.000973

